MODEL 1
REMARK VINA RESULT:     -11.6      0.000      0.000
REMARK  14 active torsions:
REMARK  status: ('A' for Active; 'I' for Inactive)
REMARK    1  A    between atoms: N1_1  and  C31_37 
REMARK    2  A    between atoms: C2_3  and  C3_4 
REMARK       I    between atoms: C3_4  and  N2_6 
REMARK    3  A    between atoms: N2_6  and  C4_44 
REMARK    4  A    between atoms: N3_7  and  C10_10 
REMARK    5  A    between atoms: C10_10  and  C11_11 
REMARK    6  A    between atoms: C11_11  and  C12_12 
REMARK    7  A    between atoms: C11_11  and  O2_29 
REMARK    8  A    between atoms: C12_12  and  C13_13 
REMARK    9  A    between atoms: C13_13  and  C14_14 
REMARK   10  A    between atoms: C13_13  and  C21_15 
REMARK   11  A    between atoms: C14_14  and  C15_31 
REMARK       I    between atoms: C21_15  and  N4_17 
REMARK   12  A    between atoms: N4_17  and  C22_18 
REMARK   13  A    between atoms: C23_19  and  O4_48 
REMARK   14  A    between atoms: C31_37  and  C32_38 
ROOT
HETATM    1  C11 IND I 201       2.478   4.310  -7.609  1.00 21.68     0.133 C 
ENDROOT
BRANCH   1   2
HETATM    2  C12 IND I 201       1.371   4.973  -8.448  1.00 21.49     0.041 C 
BRANCH   2   3
HETATM    3  C13 IND I 201       1.483   5.044  -9.977  1.00 26.89     0.086 C 
BRANCH   3   4
HETATM    4  C14 IND I 201       0.252   5.700 -10.622  1.00 28.67     0.036 C 
BRANCH   4   5
HETATM    5  C15 IND I 201       0.382   5.827 -12.096  1.00 26.89    -0.022 A 
HETATM    6  C16 IND I 201       0.552   4.723 -12.932  1.00 29.22    -0.004 A 
HETATM    7  C17 IND I 201       0.707   4.889 -14.301  1.00 29.22    -0.000 A 
HETATM    8  C18 IND I 201       0.690   6.183 -14.826  1.00 30.97    -0.000 A 
HETATM    9  C19 IND I 201       0.512   7.293 -13.992  1.00 29.25    -0.000 A 
HETATM   10  C20 IND I 201       0.357   7.108 -12.617  1.00 29.96    -0.004 A 
ENDBRANCH   4   5
ENDBRANCH   3   4
BRANCH   3  11
HETATM   11  C21 IND I 201       2.733   5.792 -10.424  1.00 29.35     0.231 C 
HETATM   12  O3  IND I 201       3.004   6.908  -9.952  1.00 32.66    -0.273 OA
HETATM   13  N4  IND I 201       3.412   5.225 -11.417  1.00 31.19    -0.341 N 
HETATM   14  H32 IND I 201       3.222   4.242 -11.659  1.00  0.00     0.163 HD
BRANCH  13  15
HETATM   15  C22 IND I 201       4.416   5.959 -12.170  1.00 29.22     0.130 C 
HETATM   16  C23 IND I 201       4.489   5.503 -13.617  1.00 28.82     0.139 C 
HETATM   17  C24 IND I 201       5.875   5.884 -14.083  1.00 32.05     0.058 C 
HETATM   18  C25 IND I 201       6.855   5.828 -12.939  1.00 31.29    -0.022 A 
HETATM   19  C26 IND I 201       8.217   5.727 -12.779  1.00 32.00    -0.004 A 
HETATM   20  C30 IND I 201       5.896   5.862 -11.716  1.00 31.86    -0.004 A 
HETATM   21  C27 IND I 201       8.728   5.667 -11.478  1.00 28.00    -0.000 A 
HETATM   22  C28 IND I 201       7.873   5.709 -10.365  1.00 29.01    -0.000 A 
HETATM   23  C29 IND I 201       6.495   5.802 -10.497  1.00 27.70    -0.003 A 
BRANCH  16  24
HETATM   24  O4  IND I 201       4.211   4.114 -13.709  1.00 28.32    -0.382 OA
HETATM   25  H35 IND I 201       4.482   3.650 -12.830  1.00  0.00     0.210 HD
ENDBRANCH  16  24
ENDBRANCH  13  15
ENDBRANCH   3  11
ENDBRANCH   2   3
ENDBRANCH   1   2
BRANCH   1  26
HETATM   26  O2  IND I 201       2.500   2.950  -7.921  1.00 15.87    -0.383 OA
HETATM   27  H21 IND I 201       1.742   2.469  -7.416  1.00  0.00     0.210 HD
ENDBRANCH   1  26
BRANCH   1  28
HETATM   28  C10 IND I 201       2.403   4.103  -6.096  1.00 20.86     0.127 C 
BRANCH  28  29
HETATM   29  N3  IND I 201       2.749   5.276  -5.318  1.00 28.91    -0.357 N 
HETATM   30  C2  IND I 201       1.758   5.746  -4.288  1.00 27.27     0.190 C 
HETATM   31  C1  IND I 201       2.509   6.890  -3.638  1.00 30.30     0.282 C 
HETATM   32  N1  IND I 201       3.835   6.681  -2.996  1.00 28.25     0.146 N 
HETATM   33  C9  IND I 201       4.714   6.251  -3.989  1.00 27.47     0.274 C 
HETATM   34  C8  IND I 201       4.186   5.207  -4.951  1.00 26.24     0.133 C 
BRANCH  30  35
HETATM   35  C3  IND I 201       0.493   6.292  -4.893  1.00 28.85     0.252 C 
HETATM   36  O1  IND I 201       0.546   7.162  -5.755  1.00 29.59    -0.270 OA
HETATM   37  N2  IND I 201      -0.646   5.803  -4.445  1.00 22.29    -0.347 N 
HETATM   38  H4  IND I 201      -0.553   5.126  -3.673  1.00  0.00     0.163 HD
BRANCH  37  39
HETATM   39  C4  IND I 201      -1.989   6.059  -4.858  1.00 23.47     0.064 C 
HETATM   40  C6  IND I 201      -2.270   5.591  -6.130  1.00 21.71     0.022 C 
HETATM   41  C5  IND I 201      -2.911   5.389  -3.822  1.00 27.66     0.022 C 
HETATM   42  C7  IND I 201      -2.355   7.478  -4.812  1.00 22.75     0.022 C 
ENDBRANCH  37  39
ENDBRANCH  30  35
BRANCH  32  43
HETATM   43  C31 IND I 201       4.348   7.760  -2.145  1.00 36.25     0.278 C 
BRANCH  43  44
HETATM   44  C32 IND I 201       3.594   8.214  -0.890  1.00 42.75     0.030 A 
HETATM   45  C36 IND I 201       3.524   9.568  -0.640  1.00 44.71     0.001 A 
HETATM   46  C35 IND I 201       2.858   9.986   0.509  1.00 49.34     0.020 A 
HETATM   47  C34 IND I 201       2.288   9.039   1.367  1.00 50.60     0.099 A 
HETATM   48  N5  IND I 201       2.314   7.657   1.190  1.00 51.38    -0.243 NA
HETATM   49  C33 IND I 201       3.000   7.319   0.012  1.00 47.41     0.097 A 
ENDBRANCH  43  44
ENDBRANCH  32  43
ENDBRANCH  28  29
ENDBRANCH   1  28
TORSDOF 14
ENDMDL
MODEL 2
REMARK VINA RESULT:     -10.6      2.048     11.070
REMARK  14 active torsions:
REMARK  status: ('A' for Active; 'I' for Inactive)
REMARK    1  A    between atoms: N1_1  and  C31_37 
REMARK    2  A    between atoms: C2_3  and  C3_4 
REMARK       I    between atoms: C3_4  and  N2_6 
REMARK    3  A    between atoms: N2_6  and  C4_44 
REMARK    4  A    between atoms: N3_7  and  C10_10 
REMARK    5  A    between atoms: C10_10  and  C11_11 
REMARK    6  A    between atoms: C11_11  and  C12_12 
REMARK    7  A    between atoms: C11_11  and  O2_29 
REMARK    8  A    between atoms: C12_12  and  C13_13 
REMARK    9  A    between atoms: C13_13  and  C14_14 
REMARK   10  A    between atoms: C13_13  and  C21_15 
REMARK   11  A    between atoms: C14_14  and  C15_31 
REMARK       I    between atoms: C21_15  and  N4_17 
REMARK   12  A    between atoms: N4_17  and  C22_18 
REMARK   13  A    between atoms: C23_19  and  O4_48 
REMARK   14  A    between atoms: C31_37  and  C32_38 
ROOT
HETATM    1  C11 IND I 201       2.516   4.382  -7.443  1.00 21.68     0.133 C 
ENDROOT
BRANCH   1   2
HETATM    2  C12 IND I 201       3.700   4.921  -6.621  1.00 21.49     0.041 C 
BRANCH   2   3
HETATM    3  C13 IND I 201       3.624   4.990  -5.089  1.00 26.89     0.086 C 
BRANCH   3   4
HETATM    4  C14 IND I 201       4.871   5.643  -4.472  1.00 28.67     0.036 C 
BRANCH   4   5
HETATM    5  C15 IND I 201       4.702   5.937  -3.026  1.00 26.89    -0.022 A 
HETATM    6  C16 IND I 201       4.466   4.940  -2.080  1.00 29.22    -0.004 A 
HETATM    7  C17 IND I 201       4.277   5.263  -0.744  1.00 29.22    -0.000 A 
HETATM    8  C18 IND I 201       4.327   6.605  -0.364  1.00 30.97    -0.000 A 
HETATM    9  C19 IND I 201       4.572   7.609  -1.309  1.00 29.25    -0.000 A 
HETATM   10  C20 IND I 201       4.760   7.267  -2.649  1.00 29.96    -0.004 A 
ENDBRANCH   4   5
ENDBRANCH   3   4
BRANCH   3  11
HETATM   11  C21 IND I 201       2.386   5.738  -4.611  1.00 29.35     0.231 C 
HETATM   12  O3  IND I 201       2.121   6.866  -5.053  1.00 32.66    -0.273 OA
HETATM   13  N4  IND I 201       1.713   5.153  -3.625  1.00 31.19    -0.341 N 
HETATM   14  H32 IND I 201       1.896   4.163  -3.408  1.00  0.00     0.163 HD
BRANCH  13  15
HETATM   15  C22 IND I 201       0.723   5.878  -2.843  1.00 29.22     0.130 C 
HETATM   16  C23 IND I 201       0.643   5.370  -1.414  1.00 28.82     0.139 C 
HETATM   17  C24 IND I 201      -0.736   5.760  -0.932  1.00 32.05     0.058 C 
HETATM   18  C25 IND I 201      -1.717   5.766  -2.077  1.00 31.29    -0.022 A 
HETATM   19  C26 IND I 201      -3.081   5.698  -2.238  1.00 32.00    -0.004 A 
HETATM   20  C30 IND I 201      -0.758   5.826  -3.299  1.00 31.86    -0.004 A 
HETATM   21  C27 IND I 201      -3.594   5.696  -3.540  1.00 28.00    -0.000 A 
HETATM   22  C28 IND I 201      -2.739   5.763  -4.652  1.00 29.01    -0.000 A 
HETATM   23  C29 IND I 201      -1.359   5.823  -4.518  1.00 27.70    -0.003 A 
BRANCH  16  24
HETATM   24  O4  IND I 201       0.893   3.974  -1.374  1.00 28.32    -0.382 OA
HETATM   25  H35 IND I 201       1.132   3.694  -0.411  1.00  0.00     0.210 HD
ENDBRANCH  16  24
ENDBRANCH  13  15
ENDBRANCH   3  11
ENDBRANCH   2   3
ENDBRANCH   1   2
BRANCH   1  26
HETATM   26  O2  IND I 201       2.319   3.046  -7.091  1.00 15.87    -0.383 OA
HETATM   27  H21 IND I 201       1.336   2.787  -7.264  1.00  0.00     0.210 HD
ENDBRANCH   1  26
BRANCH   1  28
HETATM   28  C10 IND I 201       2.561   4.123  -8.949  1.00 20.86     0.127 C 
BRANCH  28  29
HETATM   29  N3  IND I 201       2.077   5.225  -9.756  1.00 28.91    -0.357 N 
HETATM   30  C2  IND I 201       2.907   5.638 -10.941  1.00 27.27     0.190 C 
HETATM   31  C1  IND I 201       2.040   6.712 -11.566  1.00 30.30     0.282 C 
HETATM   32  N1  IND I 201       0.648   6.424 -12.006  1.00 28.25     0.146 N 
HETATM   33  C9  IND I 201      -0.078   6.052 -10.875  1.00 27.47     0.274 C 
HETATM   34  C8  IND I 201       0.607   5.096  -9.920  1.00 26.24     0.133 C 
BRANCH  30  35
HETATM   35  C3  IND I 201       4.223   6.257 -10.553  1.00 28.85     0.252 C 
HETATM   36  O1  IND I 201       4.253   7.212  -9.786  1.00 29.59    -0.270 OA
HETATM   37  N2  IND I 201       5.310   5.735 -11.083  1.00 22.29    -0.347 N 
HETATM   38  H4  IND I 201       5.141   4.979 -11.764  1.00  0.00     0.163 HD
BRANCH  37  39
HETATM   39  C4  IND I 201       6.687   6.046 -10.865  1.00 23.47     0.064 C 
HETATM   40  C6  IND I 201       7.116   5.763  -9.579  1.00 21.71     0.022 C 
HETATM   41  C5  IND I 201       7.498   5.235 -11.892  1.00 27.66     0.022 C 
HETATM   42  C7  IND I 201       7.023   7.444 -11.151  1.00 22.75     0.022 C 
ENDBRANCH  37  39
ENDBRANCH  30  35
BRANCH  32  43
HETATM   43  C31 IND I 201      -0.009   7.424 -12.857  1.00 36.25     0.278 C 
BRANCH  43  44
HETATM   44  C32 IND I 201       0.464   7.685 -14.292  1.00 42.75     0.030 A 
HETATM   45  C36 IND I 201       0.875   8.962 -14.607  1.00 44.71     0.001 A 
HETATM   46  C35 IND I 201       1.287   9.212 -15.913  1.00 49.34     0.020 A 
HETATM   47  C34 IND I 201       1.271   8.180 -16.858  1.00 50.60     0.099 A 
HETATM   48  N5  IND I 201       0.870   6.865 -16.623  1.00 51.38    -0.243 NA
HETATM   49  C33 IND I 201       0.473   6.697 -15.287  1.00 47.41     0.097 A 
ENDBRANCH  43  44
ENDBRANCH  32  43
ENDBRANCH  28  29
ENDBRANCH   1  28
TORSDOF 14
ENDMDL
MODEL 3
REMARK VINA RESULT:     -10.6      1.360      4.236
REMARK  14 active torsions:
REMARK  status: ('A' for Active; 'I' for Inactive)
REMARK    1  A    between atoms: N1_1  and  C31_37 
REMARK    2  A    between atoms: C2_3  and  C3_4 
REMARK       I    between atoms: C3_4  and  N2_6 
REMARK    3  A    between atoms: N2_6  and  C4_44 
REMARK    4  A    between atoms: N3_7  and  C10_10 
REMARK    5  A    between atoms: C10_10  and  C11_11 
REMARK    6  A    between atoms: C11_11  and  C12_12 
REMARK    7  A    between atoms: C11_11  and  O2_29 
REMARK    8  A    between atoms: C12_12  and  C13_13 
REMARK    9  A    between atoms: C13_13  and  C14_14 
REMARK   10  A    between atoms: C13_13  and  C21_15 
REMARK   11  A    between atoms: C14_14  and  C15_31 
REMARK       I    between atoms: C21_15  and  N4_17 
REMARK   12  A    between atoms: N4_17  and  C22_18 
REMARK   13  A    between atoms: C23_19  and  O4_48 
REMARK   14  A    between atoms: C31_37  and  C32_38 
ROOT
HETATM    1  C11 IND I 201       2.357   4.692  -7.465  1.00 21.68     0.133 C 
ENDROOT
BRANCH   1   2
HETATM    2  C12 IND I 201       2.469   6.139  -7.978  1.00 21.49     0.041 C 
BRANCH   2   3
HETATM    3  C13 IND I 201       2.820   6.425  -9.445  1.00 26.89     0.086 C 
BRANCH   3   4
HETATM    4  C14 IND I 201       3.839   5.420 -10.008  1.00 28.67     0.036 C 
BRANCH   4   5
HETATM    5  C15 IND I 201       5.198   6.003 -10.139  1.00 26.89    -0.022 A 
HETATM    6  C16 IND I 201       6.295   5.517  -9.427  1.00 29.22    -0.004 A 
HETATM    7  C17 IND I 201       7.541   6.116  -9.551  1.00 29.22    -0.000 A 
HETATM    8  C18 IND I 201       7.676   7.213 -10.404  1.00 30.97    -0.000 A 
HETATM    9  C19 IND I 201       6.580   7.699 -11.127  1.00 29.25    -0.000 A 
HETATM   10  C20 IND I 201       5.333   7.085 -10.990  1.00 29.96    -0.004 A 
ENDBRANCH   4   5
ENDBRANCH   3   4
BRANCH   3  11
HETATM   11  C21 IND I 201       1.586   6.430 -10.338  1.00 29.35     0.231 C 
HETATM   12  O3  IND I 201       0.469   6.156  -9.872  1.00 32.66    -0.273 OA
HETATM   13  N4  IND I 201       1.820   6.621 -11.633  1.00 31.19    -0.341 N 
HETATM   14  H32 IND I 201       2.736   6.985 -11.930  1.00  0.00     0.163 HD
BRANCH  13  15
HETATM   15  C22 IND I 201       0.813   6.328 -12.641  1.00 29.22     0.130 C 
HETATM   16  C23 IND I 201       1.033   4.971 -13.287  1.00 28.82     0.139 C 
HETATM   17  C24 IND I 201       0.341   5.055 -14.629  1.00 32.05     0.058 C 
HETATM   18  C25 IND I 201       0.383   6.465 -15.161  1.00 31.29    -0.022 A 
HETATM   19  C26 IND I 201       0.255   7.090 -16.379  1.00 32.00    -0.004 A 
HETATM   20  C30 IND I 201       0.703   7.268 -13.869  1.00 31.86    -0.004 A 
HETATM   21  C27 IND I 201       0.409   8.480 -16.431  1.00 28.00    -0.000 A 
HETATM   22  C28 IND I 201       0.685   9.217 -15.268  1.00 29.01    -0.000 A 
HETATM   23  C29 IND I 201       0.828   8.612 -14.028  1.00 27.70    -0.003 A 
BRANCH  16  24
HETATM   24  O4  IND I 201       2.421   4.687 -13.371  1.00 28.32    -0.382 OA
HETATM   25  H35 IND I 201       2.724   4.740 -14.355  1.00  0.00     0.210 HD
ENDBRANCH  16  24
ENDBRANCH  13  15
ENDBRANCH   3  11
ENDBRANCH   2   3
ENDBRANCH   1   2
BRANCH   1  26
HETATM   26  O2  IND I 201       1.031   4.284  -7.613  1.00 15.87    -0.383 OA
HETATM   27  H21 IND I 201       0.899   3.373  -7.150  1.00  0.00     0.210 HD
ENDBRANCH   1  26
BRANCH   1  28
HETATM   28  C10 IND I 201       2.463   4.291  -5.993  1.00 20.86     0.127 C 
BRANCH  28  29
HETATM   29  N3  IND I 201       2.799   5.383  -5.102  1.00 28.91    -0.357 N 
HETATM   30  C2  IND I 201       1.814   5.725  -4.017  1.00 27.27     0.190 C 
HETATM   31  C1  IND I 201       2.553   6.811  -3.262  1.00 30.30     0.282 C 
HETATM   32  N1  IND I 201       3.892   6.562  -2.662  1.00 28.25     0.146 N 
HETATM   33  C9  IND I 201       4.764   6.255  -3.705  1.00 27.47     0.274 C 
HETATM   34  C8  IND I 201       4.241   5.305  -4.763  1.00 26.24     0.133 C 
BRANCH  30  35
HETATM   35  C3  IND I 201       0.530   6.306  -4.547  1.00 28.85     0.252 C 
HETATM   36  O1  IND I 201       0.556   7.210  -5.373  1.00 29.59    -0.270 OA
HETATM   37  N2  IND I 201      -0.594   5.808  -4.072  1.00 22.29    -0.347 N 
HETATM   38  H4  IND I 201      -0.475   5.099  -3.333  1.00  0.00     0.163 HD
BRANCH  37  39
HETATM   39  C4  IND I 201      -1.950   6.091  -4.418  1.00 23.47     0.064 C 
HETATM   40  C6  IND I 201      -2.289   7.424  -4.259  1.00 21.71     0.022 C 
HETATM   41  C5  IND I 201      -2.138   5.660  -5.884  1.00 27.66     0.022 C 
HETATM   42  C7  IND I 201      -2.924   5.290  -3.670  1.00 22.75     0.022 C 
ENDBRANCH  37  39
ENDBRANCH  30  35
BRANCH  32  43
HETATM   43  C31 IND I 201       4.397   7.558  -1.709  1.00 36.25     0.278 C 
BRANCH  43  44
HETATM   44  C32 IND I 201       3.454   8.311  -0.765  1.00 42.75     0.030 A 
HETATM   45  C36 IND I 201       3.567   9.683  -0.707  1.00 44.71     0.001 A 
HETATM   46  C35 IND I 201       2.727  10.371   0.164  1.00 49.34     0.020 A 
HETATM   47  C34 IND I 201       1.806   9.666   0.946  1.00 50.60     0.099 A 
HETATM   48  N5  IND I 201       1.627   8.284   0.950  1.00 51.38    -0.243 NA
HETATM   49  C33 IND I 201       2.509   7.666   0.047  1.00 47.41     0.097 A 
ENDBRANCH  43  44
ENDBRANCH  32  43
ENDBRANCH  28  29
ENDBRANCH   1  28
TORSDOF 14
ENDMDL
MODEL 4
REMARK VINA RESULT:     -10.2      1.871     10.935
REMARK  14 active torsions:
REMARK  status: ('A' for Active; 'I' for Inactive)
REMARK    1  A    between atoms: N1_1  and  C31_37 
REMARK    2  A    between atoms: C2_3  and  C3_4 
REMARK       I    between atoms: C3_4  and  N2_6 
REMARK    3  A    between atoms: N2_6  and  C4_44 
REMARK    4  A    between atoms: N3_7  and  C10_10 
REMARK    5  A    between atoms: C10_10  and  C11_11 
REMARK    6  A    between atoms: C11_11  and  C12_12 
REMARK    7  A    between atoms: C11_11  and  O2_29 
REMARK    8  A    between atoms: C12_12  and  C13_13 
REMARK    9  A    between atoms: C13_13  and  C14_14 
REMARK   10  A    between atoms: C13_13  and  C21_15 
REMARK   11  A    between atoms: C14_14  and  C15_31 
REMARK       I    between atoms: C21_15  and  N4_17 
REMARK   12  A    between atoms: N4_17  and  C22_18 
REMARK   13  A    between atoms: C23_19  and  O4_48 
REMARK   14  A    between atoms: C31_37  and  C32_38 
ROOT
HETATM    1  C11 IND I 201       4.170   5.658  -5.816  1.00 21.68     0.133 C 
ENDROOT
BRANCH   1   2
HETATM    2  C12 IND I 201       4.499   6.813  -4.853  1.00 21.49     0.041 C 
BRANCH   2   3
HETATM    3  C13 IND I 201       4.042   6.767  -3.389  1.00 26.89     0.086 C 
BRANCH   3   4
HETATM    4  C14 IND I 201       3.818   8.171  -2.804  1.00 28.67     0.036 C 
BRANCH   4   5
HETATM    5  C15 IND I 201       4.084   8.227  -1.344  1.00 26.89    -0.022 A 
HETATM    6  C16 IND I 201       4.737   7.202  -0.660  1.00 29.22    -0.004 A 
HETATM    7  C17 IND I 201       4.932   7.279   0.712  1.00 29.22    -0.000 A 
HETATM    8  C18 IND I 201       4.462   8.402   1.395  1.00 30.97    -0.000 A 
HETATM    9  C19 IND I 201       3.813   9.437   0.711  1.00 29.25    -0.000 A 
HETATM   10  C20 IND I 201       3.625   9.344  -0.669  1.00 29.96    -0.004 A 
ENDBRANCH   4   5
ENDBRANCH   3   4
BRANCH   3  11
HETATM   11  C21 IND I 201       2.769   5.949  -3.212  1.00 29.35     0.231 C 
HETATM   12  O3  IND I 201       2.826   4.770  -2.827  1.00 32.66    -0.273 OA
HETATM   13  N4  IND I 201       1.649   6.544  -3.611  1.00 31.19    -0.341 N 
HETATM   14  H32 IND I 201       1.651   7.560  -3.779  1.00  0.00     0.163 HD
BRANCH  13  15
HETATM   15  C22 IND I 201       0.420   5.793  -3.818  1.00 29.22     0.130 C 
HETATM   16  C23 IND I 201      -0.115   5.956  -5.230  1.00 28.82     0.139 C 
HETATM   17  C24 IND I 201      -1.592   5.651  -5.131  1.00 32.05     0.058 C 
HETATM   18  C25 IND I 201      -2.127   6.046  -3.778  1.00 31.29    -0.022 A 
HETATM   19  C26 IND I 201      -3.351   6.332  -3.220  1.00 32.00    -0.004 A 
HETATM   20  C30 IND I 201      -0.815   6.148  -2.950  1.00 31.86    -0.004 A 
HETATM   21  C27 IND I 201      -3.392   6.709  -1.873  1.00 28.00    -0.000 A 
HETATM   22  C28 IND I 201      -2.215   6.793  -1.112  1.00 29.01    -0.000 A 
HETATM   23  C29 IND I 201      -0.967   6.519  -1.652  1.00 27.70    -0.003 A 
BRANCH  16  24
HETATM   24  O4  IND I 201       0.173   7.257  -5.718  1.00 28.32    -0.382 OA
HETATM   25  H35 IND I 201      -0.693   7.694  -6.065  1.00  0.00     0.210 HD
ENDBRANCH  16  24
ENDBRANCH  13  15
ENDBRANCH   3  11
ENDBRANCH   2   3
ENDBRANCH   1   2
BRANCH   1  26
HETATM   26  O2  IND I 201       4.822   4.514  -5.356  1.00 15.87    -0.383 OA
HETATM   27  H21 IND I 201       4.734   4.457  -4.331  1.00  0.00     0.210 HD
ENDBRANCH   1  26
BRANCH   1  28
HETATM   28  C10 IND I 201       4.699   5.553  -7.246  1.00 20.86     0.127 C 
BRANCH  28  29
HETATM   29  N3  IND I 201       3.684   5.708  -8.269  1.00 28.91    -0.357 N 
HETATM   30  C2  IND I 201       4.047   5.318  -9.676  1.00 27.27     0.190 C 
HETATM   31  C1  IND I 201       2.732   5.520 -10.400  1.00 30.30     0.282 C 
HETATM   32  N1  IND I 201       1.499   4.799  -9.984  1.00 28.25     0.146 N 
HETATM   33  C9  IND I 201       1.205   5.196  -8.680  1.00 27.47     0.274 C 
HETATM   34  C8  IND I 201       2.374   5.277  -7.720  1.00 26.24     0.133 C 
BRANCH  30  35
HETATM   35  C3  IND I 201       5.074   6.229 -10.294  1.00 28.85     0.252 C 
HETATM   36  O1  IND I 201       4.910   7.443 -10.281  1.00 29.59    -0.270 OA
HETATM   37  N2  IND I 201       6.125   5.658 -10.848  1.00 22.29    -0.347 N 
HETATM   38  H4  IND I 201       6.107   4.627 -10.850  1.00  0.00     0.163 HD
BRANCH  37  39
HETATM   39  C4  IND I 201       7.285   6.238 -11.444  1.00 23.47     0.064 C 
HETATM   40  C6  IND I 201       7.036   6.818 -12.676  1.00 21.71     0.022 C 
HETATM   41  C5  IND I 201       7.821   7.288 -10.453  1.00 27.66     0.022 C 
HETATM   42  C7  IND I 201       8.392   5.291 -11.611  1.00 22.75     0.022 C 
ENDBRANCH  37  39
ENDBRANCH  30  35
BRANCH  32  43
HETATM   43  C31 IND I 201       0.359   4.825 -10.908  1.00 36.25     0.278 C 
BRANCH  43  44
HETATM   44  C32 IND I 201       0.476   5.449 -12.303  1.00 42.75     0.030 A 
HETATM   45  C36 IND I 201       0.292   6.810 -12.412  1.00 44.71     0.001 A 
HETATM   46  C35 IND I 201       0.377   7.381 -13.679  1.00 49.34     0.020 A 
HETATM   47  C34 IND I 201       0.640   6.573 -14.791  1.00 50.60     0.099 A 
HETATM   48  N5  IND I 201       0.837   5.193 -14.769  1.00 51.38    -0.243 NA
HETATM   49  C33 IND I 201       0.737   4.697 -13.458  1.00 47.41     0.097 A 
ENDBRANCH  43  44
ENDBRANCH  32  43
ENDBRANCH  28  29
ENDBRANCH   1  28
TORSDOF 14
ENDMDL
MODEL 5
REMARK VINA RESULT:     -10.1      2.121     10.498
REMARK  14 active torsions:
REMARK  status: ('A' for Active; 'I' for Inactive)
REMARK    1  A    between atoms: N1_1  and  C31_37 
REMARK    2  A    between atoms: C2_3  and  C3_4 
REMARK       I    between atoms: C3_4  and  N2_6 
REMARK    3  A    between atoms: N2_6  and  C4_44 
REMARK    4  A    between atoms: N3_7  and  C10_10 
REMARK    5  A    between atoms: C10_10  and  C11_11 
REMARK    6  A    between atoms: C11_11  and  C12_12 
REMARK    7  A    between atoms: C11_11  and  O2_29 
REMARK    8  A    between atoms: C12_12  and  C13_13 
REMARK    9  A    between atoms: C13_13  and  C14_14 
REMARK   10  A    between atoms: C13_13  and  C21_15 
REMARK   11  A    between atoms: C14_14  and  C15_31 
REMARK       I    between atoms: C21_15  and  N4_17 
REMARK   12  A    between atoms: N4_17  and  C22_18 
REMARK   13  A    between atoms: C23_19  and  O4_48 
REMARK   14  A    between atoms: C31_37  and  C32_38 
ROOT
HETATM    1  C11 IND I 201       3.110   4.887  -8.105  1.00 21.68     0.133 C 
ENDROOT
BRANCH   1   2
HETATM    2  C12 IND I 201       2.879   6.323  -7.602  1.00 21.49     0.041 C 
BRANCH   2   3
HETATM    3  C13 IND I 201       2.368   6.581  -6.177  1.00 26.89     0.086 C 
BRANCH   3   4
HETATM    4  C14 IND I 201       1.384   5.499  -5.706  1.00 28.67     0.036 C 
BRANCH   4   5
HETATM    5  C15 IND I 201      -0.014   5.995  -5.631  1.00 26.89    -0.022 A 
HETATM    6  C16 IND I 201      -1.056   5.414  -6.352  1.00 29.22    -0.004 A 
HETATM    7  C17 IND I 201      -2.342   5.933  -6.282  1.00 29.22    -0.000 A 
HETATM    8  C18 IND I 201      -2.572   7.049  -5.475  1.00 30.97    -0.000 A 
HETATM    9  C19 IND I 201      -1.529   7.631  -4.743  1.00 29.25    -0.000 A 
HETATM   10  C20 IND I 201      -0.243   7.096  -4.825  1.00 29.96    -0.004 A 
ENDBRANCH   4   5
ENDBRANCH   3   4
BRANCH   3  11
HETATM   11  C21 IND I 201       3.507   6.685  -5.171  1.00 29.35     0.231 C 
HETATM   12  O3  IND I 201       4.683   6.518  -5.530  1.00 32.66    -0.273 OA
HETATM   13  N4  IND I 201       3.136   6.840  -3.904  1.00 31.19    -0.341 N 
HETATM   14  H32 IND I 201       2.166   7.117  -3.693  1.00  0.00     0.163 HD
BRANCH  13  15
HETATM   15  C22 IND I 201       4.065   6.625  -2.806  1.00 29.22     0.130 C 
HETATM   16  C23 IND I 201       3.908   5.248  -2.187  1.00 28.82     0.139 C 
HETATM   17  C24 IND I 201       4.460   5.377  -0.786  1.00 32.05     0.058 C 
HETATM   18  C25 IND I 201       4.242   6.772  -0.256  1.00 31.29    -0.022 A 
HETATM   19  C26 IND I 201       4.199   7.391   0.971  1.00 32.00    -0.004 A 
HETATM   20  C30 IND I 201       3.975   7.558  -1.570  1.00 31.86    -0.004 A 
HETATM   21  C27 IND I 201       3.917   8.761   1.012  1.00 28.00    -0.000 A 
HETATM   22  C28 IND I 201       3.686   9.484  -0.170  1.00 29.01    -0.000 A 
HETATM   23  C29 IND I 201       3.715   8.884  -1.420  1.00 27.70    -0.003 A 
BRANCH  16  24
HETATM   24  O4  IND I 201       2.549   4.840  -2.236  1.00 28.32    -0.382 OA
HETATM   25  H35 IND I 201       2.473   3.959  -2.765  1.00  0.00     0.210 HD
ENDBRANCH  16  24
ENDBRANCH  13  15
ENDBRANCH   3  11
ENDBRANCH   2   3
ENDBRANCH   1   2
BRANCH   1  26
HETATM   26  O2  IND I 201       4.480   4.628  -8.057  1.00 15.87    -0.383 OA
HETATM   27  H21 IND I 201       4.999   5.473  -8.336  1.00  0.00     0.210 HD
ENDBRANCH   1  26
BRANCH   1  28
HETATM   28  C10 IND I 201       2.936   4.447  -9.559  1.00 20.86     0.127 C 
BRANCH  28  29
HETATM   29  N3  IND I 201       2.521   5.508 -10.456  1.00 28.91    -0.357 N 
HETATM   30  C2  IND I 201       2.948   5.409 -11.895  1.00 27.27     0.190 C 
HETATM   31  C1  IND I 201       2.251   6.608 -12.505  1.00 30.30     0.282 C 
HETATM   32  N1  IND I 201       0.773   6.766 -12.431  1.00 28.25     0.146 N 
HETATM   33  C9  IND I 201       0.432   6.856 -11.082  1.00 27.47     0.274 C 
HETATM   34  C8  IND I 201       1.119   5.882 -10.147  1.00 26.24     0.133 C 
BRANCH  30  35
HETATM   35  C3  IND I 201       4.432   5.577 -12.084  1.00 28.85     0.252 C 
HETATM   36  O1  IND I 201       5.044   4.839 -12.847  1.00 29.59    -0.270 OA
HETATM   37  N2  IND I 201       5.020   6.530 -11.390  1.00 22.29    -0.347 N 
HETATM   38  H4  IND I 201       4.403   7.033 -10.735  1.00  0.00     0.163 HD
BRANCH  37  39
HETATM   39  C4  IND I 201       6.376   6.978 -11.399  1.00 23.47     0.064 C 
HETATM   40  C6  IND I 201       6.498   8.356 -11.337  1.00 21.71     0.022 C 
HETATM   41  C5  IND I 201       7.073   6.322 -10.193  1.00 27.66     0.022 C 
HETATM   42  C7  IND I 201       7.138   6.513 -12.562  1.00 22.75     0.022 C 
ENDBRANCH  37  39
ENDBRANCH  30  35
BRANCH  32  43
HETATM   43  C31 IND I 201       0.161   7.786 -13.290  1.00 36.25     0.278 C 
BRANCH  43  44
HETATM   44  C32 IND I 201       0.460   7.849 -14.792  1.00 42.75     0.030 A 
HETATM   45  C36 IND I 201       1.121   8.961 -15.267  1.00 44.71     0.001 A 
HETATM   46  C35 IND I 201       1.379   9.034 -16.633  1.00 49.34     0.020 A 
HETATM   47  C34 IND I 201       0.965   7.997 -17.476  1.00 50.60     0.099 A 
HETATM   48  N5  IND I 201       0.292   6.842 -17.080  1.00 51.38    -0.243 NA
HETATM   49  C33 IND I 201       0.073   6.845 -15.692  1.00 47.41     0.097 A 
ENDBRANCH  43  44
ENDBRANCH  32  43
ENDBRANCH  28  29
ENDBRANCH   1  28
TORSDOF 14
ENDMDL
MODEL 6
REMARK VINA RESULT:     -10.0      1.473      2.408
REMARK  14 active torsions:
REMARK  status: ('A' for Active; 'I' for Inactive)
REMARK    1  A    between atoms: N1_1  and  C31_37 
REMARK    2  A    between atoms: C2_3  and  C3_4 
REMARK       I    between atoms: C3_4  and  N2_6 
REMARK    3  A    between atoms: N2_6  and  C4_44 
REMARK    4  A    between atoms: N3_7  and  C10_10 
REMARK    5  A    between atoms: C10_10  and  C11_11 
REMARK    6  A    between atoms: C11_11  and  C12_12 
REMARK    7  A    between atoms: C11_11  and  O2_29 
REMARK    8  A    between atoms: C12_12  and  C13_13 
REMARK    9  A    between atoms: C13_13  and  C14_14 
REMARK   10  A    between atoms: C13_13  and  C21_15 
REMARK   11  A    between atoms: C14_14  and  C15_31 
REMARK       I    between atoms: C21_15  and  N4_17 
REMARK   12  A    between atoms: N4_17  and  C22_18 
REMARK   13  A    between atoms: C23_19  and  O4_48 
REMARK   14  A    between atoms: C31_37  and  C32_38 
ROOT
HETATM    1  C11 IND I 201       1.706   7.328  -7.612  1.00 21.68     0.133 C 
ENDROOT
BRANCH   1   2
HETATM    2  C12 IND I 201       1.215   6.725  -8.940  1.00 21.49     0.041 C 
BRANCH   2   3
HETATM    3  C13 IND I 201       1.120   5.204  -9.122  1.00 26.89     0.086 C 
BRANCH   3   4
HETATM    4  C14 IND I 201       0.124   4.809 -10.224  1.00 28.67     0.036 C 
BRANCH   4   5
HETATM    5  C15 IND I 201       0.283   5.627 -11.453  1.00 26.89    -0.022 A 
HETATM    6  C16 IND I 201      -0.092   6.969 -11.515  1.00 29.22    -0.004 A 
HETATM    7  C17 IND I 201       0.039   7.687 -12.697  1.00 29.22    -0.000 A 
HETATM    8  C18 IND I 201       0.554   7.040 -13.821  1.00 30.97    -0.000 A 
HETATM    9  C19 IND I 201       0.940   5.695 -13.761  1.00 29.25    -0.000 A 
HETATM   10  C20 IND I 201       0.802   4.988 -12.565  1.00 29.96    -0.004 A 
ENDBRANCH   4   5
ENDBRANCH   3   4
BRANCH   3  11
HETATM   11  C21 IND I 201       2.475   4.579  -9.433  1.00 29.35     0.231 C 
HETATM   12  O3  IND I 201       2.872   3.588  -8.801  1.00 32.66    -0.273 OA
HETATM   13  N4  IND I 201       3.217   5.239 -10.317  1.00 31.19    -0.341 N 
HETATM   14  H32 IND I 201       2.777   5.960 -10.906  1.00  0.00     0.163 HD
BRANCH  13  15
HETATM   15  C22 IND I 201       4.638   4.968 -10.472  1.00 29.22     0.130 C 
HETATM   16  C23 IND I 201       5.477   5.739  -9.468  1.00 28.82     0.139 C 
HETATM   17  C24 IND I 201       6.852   5.833 -10.090  1.00 32.05     0.058 C 
HETATM   18  C25 IND I 201       6.753   5.876 -11.594  1.00 31.29    -0.022 A 
HETATM   19  C26 IND I 201       7.540   6.278 -12.647  1.00 32.00    -0.004 A 
HETATM   20  C30 IND I 201       5.315   5.330 -11.820  1.00 31.86    -0.004 A 
HETATM   21  C27 IND I 201       7.019   6.172 -13.941  1.00 28.00    -0.000 A 
HETATM   22  C28 IND I 201       5.727   5.669 -14.159  1.00 29.01    -0.000 A 
HETATM   23  C29 IND I 201       4.907   5.265 -13.115  1.00 27.70    -0.003 A 
BRANCH  16  24
HETATM   24  O4  IND I 201       4.882   6.997  -9.193  1.00 28.32    -0.382 OA
HETATM   25  H35 IND I 201       4.175   7.209  -9.913  1.00  0.00     0.210 HD
ENDBRANCH  16  24
ENDBRANCH  13  15
ENDBRANCH   3  11
ENDBRANCH   2   3
ENDBRANCH   1   2
BRANCH   1  26
HETATM   26  O2  IND I 201       2.424   8.488  -7.904  1.00 15.87    -0.383 OA
HETATM   27  H21 IND I 201       2.321   9.160  -7.130  1.00  0.00     0.210 HD
ENDBRANCH   1  26
BRANCH   1  28
HETATM   28  C10 IND I 201       2.795   6.708  -6.737  1.00 20.86     0.127 C 
BRANCH  28  29
HETATM   29  N3  IND I 201       2.496   6.717  -5.319  1.00 28.91    -0.357 N 
HETATM   30  C2  IND I 201       1.831   5.498  -4.739  1.00 27.27     0.190 C 
HETATM   31  C1  IND I 201       1.785   5.844  -3.265  1.00 30.30     0.282 C 
HETATM   32  N1  IND I 201       3.026   6.148  -2.502  1.00 28.25     0.146 N 
HETATM   33  C9  IND I 201       3.599   7.283  -3.074  1.00 27.47     0.274 C 
HETATM   34  C8  IND I 201       3.633   7.330  -4.587  1.00 26.24     0.133 C 
BRANCH  30  35
HETATM   35  C3  IND I 201       0.419   5.308  -5.226  1.00 28.85     0.252 C 
HETATM   36  O1  IND I 201       0.138   4.360  -5.949  1.00 29.59    -0.270 OA
HETATM   37  N2  IND I 201      -0.470   6.205  -4.849  1.00 22.29    -0.347 N 
HETATM   38  H4  IND I 201      -0.089   6.988  -4.297  1.00  0.00     0.163 HD
BRANCH  37  39
HETATM   39  C4  IND I 201      -1.878   6.265  -5.080  1.00 23.47     0.064 C 
HETATM   40  C6  IND I 201      -2.246   5.816  -6.337  1.00 21.71     0.022 C 
HETATM   41  C5  IND I 201      -2.549   5.414  -3.987  1.00 27.66     0.022 C 
HETATM   42  C7  IND I 201      -2.443   7.606  -4.901  1.00 22.75     0.022 C 
ENDBRANCH  37  39
ENDBRANCH  30  35
BRANCH  32  43
HETATM   43  C31 IND I 201       2.925   6.180  -1.038  1.00 36.25     0.278 C 
BRANCH  43  44
HETATM   44  C32 IND I 201       2.005   7.176  -0.323  1.00 42.75     0.030 A 
HETATM   45  C36 IND I 201       2.568   8.343   0.148  1.00 44.71     0.001 A 
HETATM   46  C35 IND I 201       1.742   9.243   0.816  1.00 49.34     0.020 A 
HETATM   47  C34 IND I 201       0.386   8.946   0.991  1.00 50.60     0.099 A 
HETATM   48  N5  IND I 201      -0.261   7.793   0.549  1.00 51.38    -0.243 NA
HETATM   49  C33 IND I 201       0.638   6.941  -0.114  1.00 47.41     0.097 A 
ENDBRANCH  43  44
ENDBRANCH  32  43
ENDBRANCH  28  29
ENDBRANCH   1  28
TORSDOF 14
ENDMDL
MODEL 7
REMARK VINA RESULT:      -9.9      1.856     10.886
REMARK  14 active torsions:
REMARK  status: ('A' for Active; 'I' for Inactive)
REMARK    1  A    between atoms: N1_1  and  C31_37 
REMARK    2  A    between atoms: C2_3  and  C3_4 
REMARK       I    between atoms: C3_4  and  N2_6 
REMARK    3  A    between atoms: N2_6  and  C4_44 
REMARK    4  A    between atoms: N3_7  and  C10_10 
REMARK    5  A    between atoms: C10_10  and  C11_11 
REMARK    6  A    between atoms: C11_11  and  C12_12 
REMARK    7  A    between atoms: C11_11  and  O2_29 
REMARK    8  A    between atoms: C12_12  and  C13_13 
REMARK    9  A    between atoms: C13_13  and  C14_14 
REMARK   10  A    between atoms: C13_13  and  C21_15 
REMARK   11  A    between atoms: C14_14  and  C15_31 
REMARK       I    between atoms: C21_15  and  N4_17 
REMARK   12  A    between atoms: N4_17  and  C22_18 
REMARK   13  A    between atoms: C23_19  and  O4_48 
REMARK   14  A    between atoms: C31_37  and  C32_38 
ROOT
HETATM    1  C11 IND I 201       3.464   5.141  -7.298  1.00 21.68     0.133 C 
ENDROOT
BRANCH   1   2
HETATM    2  C12 IND I 201       4.495   5.504  -6.214  1.00 21.49     0.041 C 
BRANCH   2   3
HETATM    3  C13 IND I 201       4.047   5.810  -4.778  1.00 26.89     0.086 C 
BRANCH   3   4
HETATM    4  C14 IND I 201       4.942   6.859  -4.099  1.00 28.67     0.036 C 
BRANCH   4   5
HETATM    5  C15 IND I 201       4.559   7.104  -2.686  1.00 26.89    -0.022 A 
HETATM    6  C16 IND I 201       4.555   6.094  -1.724  1.00 29.22    -0.004 A 
HETATM    7  C17 IND I 201       4.153   6.359  -0.421  1.00 29.22    -0.000 A 
HETATM    8  C18 IND I 201       3.754   7.655  -0.093  1.00 30.97    -0.000 A 
HETATM    9  C19 IND I 201       3.765   8.674  -1.054  1.00 29.25    -0.000 A 
HETATM   10  C20 IND I 201       4.171   8.391  -2.358  1.00 29.96    -0.004 A 
ENDBRANCH   4   5
ENDBRANCH   3   4
BRANCH   3  11
HETATM   11  C21 IND I 201       2.600   6.283  -4.719  1.00 29.35     0.231 C 
HETATM   12  O3  IND I 201       2.248   7.315  -5.313  1.00 32.66    -0.273 OA
HETATM   13  N4  IND I 201       1.807   5.591  -3.906  1.00 31.19    -0.341 N 
HETATM   14  H32 IND I 201       2.118   4.671  -3.563  1.00  0.00     0.163 HD
BRANCH  13  15
HETATM   15  C22 IND I 201       0.512   6.103  -3.487  1.00 29.22     0.130 C 
HETATM   16  C23 IND I 201       0.088   5.546  -2.140  1.00 28.82     0.139 C 
HETATM   17  C24 IND I 201      -1.419   5.668  -2.117  1.00 32.05     0.058 C 
HETATM   18  C25 IND I 201      -1.984   5.534  -3.508  1.00 31.29    -0.022 A 
HETATM   19  C26 IND I 201      -3.196   5.228  -4.081  1.00 32.00    -0.004 A 
HETATM   20  C30 IND I 201      -0.722   5.802  -4.376  1.00 31.86    -0.004 A 
HETATM   21  C27 IND I 201      -3.274   5.175  -5.477  1.00 28.00    -0.000 A 
HETATM   22  C28 IND I 201      -2.144   5.428  -6.272  1.00 29.01    -0.000 A 
HETATM   23  C29 IND I 201      -0.907   5.730  -5.721  1.00 27.70    -0.003 A 
BRANCH  16  24
HETATM   24  O4  IND I 201       0.560   4.216  -1.988  1.00 28.32    -0.382 OA
HETATM   25  H35 IND I 201      -0.103   3.679  -1.410  1.00  0.00     0.210 HD
ENDBRANCH  16  24
ENDBRANCH  13  15
ENDBRANCH   3  11
ENDBRANCH   2   3
ENDBRANCH   1   2
BRANCH   1  26
HETATM   26  O2  IND I 201       2.981   3.862  -7.023  1.00 15.87    -0.383 OA
HETATM   27  H21 IND I 201       3.765   3.194  -7.009  1.00  0.00     0.210 HD
ENDBRANCH   1  26
BRANCH   1  28
HETATM   28  C10 IND I 201       3.818   4.845  -8.756  1.00 20.86     0.127 C 
BRANCH  28  29
HETATM   29  N3  IND I 201       3.136   5.689  -9.716  1.00 28.91    -0.357 N 
HETATM   30  C2  IND I 201       3.263   5.331 -11.172  1.00 27.27     0.190 C 
HETATM   31  C1  IND I 201       2.352   6.353 -11.821  1.00 30.30     0.282 C 
HETATM   32  N1  IND I 201       0.914   6.452 -11.455  1.00 28.25     0.146 N 
HETATM   33  C9  IND I 201       0.851   6.788 -10.103  1.00 27.47     0.274 C 
HETATM   34  C8  IND I 201       1.799   6.050  -9.181  1.00 26.24     0.133 C 
BRANCH  30  35
HETATM   35  C3  IND I 201       4.655   5.528 -11.709  1.00 28.85     0.252 C 
HETATM   36  O1  IND I 201       5.198   4.641 -12.358  1.00 29.59    -0.270 OA
HETATM   37  N2  IND I 201       5.246   6.674 -11.437  1.00 22.29    -0.347 N 
HETATM   38  H4  IND I 201       4.706   7.305 -10.826  1.00  0.00     0.163 HD
BRANCH  37  39
HETATM   39  C4  IND I 201       6.513   7.183 -11.853  1.00 23.47     0.064 C 
HETATM   40  C6  IND I 201       6.688   7.163 -13.227  1.00 21.71     0.022 C 
HETATM   41  C5  IND I 201       6.615   8.624 -11.319  1.00 27.66     0.022 C 
HETATM   42  C7  IND I 201       7.652   6.485 -11.248  1.00 22.75     0.022 C 
ENDBRANCH  37  39
ENDBRANCH  30  35
BRANCH  32  43
HETATM   43  C31 IND I 201       0.050   7.254 -12.329  1.00 36.25     0.278 C 
BRANCH  43  44
HETATM   44  C32 IND I 201       0.422   7.521 -13.792  1.00 42.75     0.030 A 
HETATM   45  C36 IND I 201       0.659   8.826 -14.164  1.00 44.71     0.001 A 
HETATM   46  C35 IND I 201       0.978   9.079 -15.495  1.00 49.34     0.020 A 
HETATM   47  C34 IND I 201       1.046   8.020 -16.408  1.00 50.60     0.099 A 
HETATM   48  N5  IND I 201       0.820   6.675 -16.116  1.00 51.38    -0.243 NA
HETATM   49  C33 IND I 201       0.507   6.507 -14.758  1.00 47.41     0.097 A 
ENDBRANCH  43  44
ENDBRANCH  32  43
ENDBRANCH  28  29
ENDBRANCH   1  28
TORSDOF 14
ENDMDL
MODEL 8
REMARK VINA RESULT:      -9.9      2.506     11.224
REMARK  14 active torsions:
REMARK  status: ('A' for Active; 'I' for Inactive)
REMARK    1  A    between atoms: N1_1  and  C31_37 
REMARK    2  A    between atoms: C2_3  and  C3_4 
REMARK       I    between atoms: C3_4  and  N2_6 
REMARK    3  A    between atoms: N2_6  and  C4_44 
REMARK    4  A    between atoms: N3_7  and  C10_10 
REMARK    5  A    between atoms: C10_10  and  C11_11 
REMARK    6  A    between atoms: C11_11  and  C12_12 
REMARK    7  A    between atoms: C11_11  and  O2_29 
REMARK    8  A    between atoms: C12_12  and  C13_13 
REMARK    9  A    between atoms: C13_13  and  C14_14 
REMARK   10  A    between atoms: C13_13  and  C21_15 
REMARK   11  A    between atoms: C14_14  and  C15_31 
REMARK       I    between atoms: C21_15  and  N4_17 
REMARK   12  A    between atoms: N4_17  and  C22_18 
REMARK   13  A    between atoms: C23_19  and  O4_48 
REMARK   14  A    between atoms: C31_37  and  C32_38 
ROOT
HETATM    1  C11 IND I 201       0.892   5.311  -9.919  1.00 21.68     0.133 C 
ENDROOT
BRANCH   1   2
HETATM    2  C12 IND I 201       0.596   5.845  -8.506  1.00 21.49     0.041 C 
BRANCH   2   3
HETATM    3  C13 IND I 201       1.529   5.513  -7.333  1.00 26.89     0.086 C 
BRANCH   3   4
HETATM    4  C14 IND I 201       2.443   6.692  -6.963  1.00 28.67     0.036 C 
BRANCH   4   5
HETATM    5  C15 IND I 201       3.273   6.413  -5.764  1.00 26.89    -0.022 A 
HETATM    6  C16 IND I 201       4.180   5.355  -5.709  1.00 29.22    -0.004 A 
HETATM    7  C17 IND I 201       4.909   5.107  -4.553  1.00 29.22    -0.000 A 
HETATM    8  C18 IND I 201       4.718   5.938  -3.448  1.00 30.97    -0.000 A 
HETATM    9  C19 IND I 201       3.815   7.007  -3.502  1.00 29.25    -0.000 A 
HETATM   10  C20 IND I 201       3.089   7.242  -4.671  1.00 29.96    -0.004 A 
ENDBRANCH   4   5
ENDBRANCH   3   4
BRANCH   3  11
HETATM   11  C21 IND I 201       0.757   5.079  -6.093  1.00 29.35     0.231 C 
HETATM   12  O3  IND I 201       0.857   3.919  -5.662  1.00 32.66    -0.273 OA
HETATM   13  N4  IND I 201      -0.095   5.977  -5.608  1.00 31.19    -0.341 N 
HETATM   14  H32 IND I 201      -0.023   6.957  -5.917  1.00  0.00     0.163 HD
BRANCH  13  15
HETATM   15  C22 IND I 201      -1.129   5.609  -4.654  1.00 29.22     0.130 C 
HETATM   16  C23 IND I 201      -2.368   6.475  -4.794  1.00 28.82     0.139 C 
HETATM   17  C24 IND I 201      -3.059   6.399  -3.451  1.00 32.05     0.058 C 
HETATM   18  C25 IND I 201      -2.051   6.220  -2.345  1.00 31.29    -0.022 A 
HETATM   19  C26 IND I 201      -1.999   6.414  -0.984  1.00 32.00    -0.004 A 
HETATM   20  C30 IND I 201      -0.810   5.726  -3.140  1.00 31.86    -0.004 A 
HETATM   21  C27 IND I 201      -0.796   6.143  -0.322  1.00 28.00    -0.000 A 
HETATM   22  C28 IND I 201       0.327   5.684  -1.028  1.00 29.01    -0.000 A 
HETATM   23  C29 IND I 201       0.306   5.488  -2.402  1.00 27.70    -0.003 A 
BRANCH  16  24
HETATM   24  O4  IND I 201      -2.006   7.791  -5.182  1.00 28.32    -0.382 OA
HETATM   25  H35 IND I 201      -1.680   8.316  -4.357  1.00  0.00     0.210 HD
ENDBRANCH  16  24
ENDBRANCH  13  15
ENDBRANCH   3  11
ENDBRANCH   2   3
ENDBRANCH   1   2
BRANCH   1  26
HETATM   26  O2  IND I 201       0.998   3.923  -9.843  1.00 15.87    -0.383 OA
HETATM   27  H21 IND I 201       1.557   3.577 -10.636  1.00  0.00     0.210 HD
ENDBRANCH   1  26
BRANCH   1  28
HETATM   28  C10 IND I 201       2.218   5.512 -10.654  1.00 20.86     0.127 C 
BRANCH  28  29
HETATM   29  N3  IND I 201       2.091   6.158 -11.944  1.00 28.91    -0.357 N 
HETATM   30  C2  IND I 201       2.713   5.473 -13.130  1.00 27.27     0.190 C 
HETATM   31  C1  IND I 201       2.285   6.379 -14.268  1.00 30.30     0.282 C 
HETATM   32  N1  IND I 201       0.849   6.650 -14.543  1.00 28.25     0.146 N 
HETATM   33  C9  IND I 201       0.323   7.286 -13.420  1.00 27.47     0.274 C 
HETATM   34  C8  IND I 201       0.722   6.716 -12.074  1.00 26.24     0.133 C 
BRANCH  30  35
HETATM   35  C3  IND I 201       4.217   5.454 -13.080  1.00 28.85     0.252 C 
HETATM   36  O1  IND I 201       4.837   4.485 -13.502  1.00 29.59    -0.270 OA
HETATM   37  N2  IND I 201       4.813   6.507 -12.557  1.00 22.29    -0.347 N 
HETATM   38  H4  IND I 201       4.174   7.222 -12.178  1.00  0.00     0.163 HD
BRANCH  37  39
HETATM   39  C4  IND I 201       6.201   6.817 -12.431  1.00 23.47     0.064 C 
HETATM   40  C6  IND I 201       6.950   5.777 -11.907  1.00 21.71     0.022 C 
HETATM   41  C5  IND I 201       6.706   7.188 -13.837  1.00 27.66     0.022 C 
HETATM   42  C7  IND I 201       6.462   8.010 -11.619  1.00 22.75     0.022 C 
ENDBRANCH  37  39
ENDBRANCH  30  35
BRANCH  32  43
HETATM   43  C31 IND I 201       0.518   7.288 -15.823  1.00 36.25     0.278 C 
BRANCH  43  44
HETATM   44  C32 IND I 201       1.378   8.420 -16.397  1.00 42.75     0.030 A 
HETATM   45  C36 IND I 201       1.198   9.684 -15.881  1.00 44.71     0.001 A 
HETATM   46  C35 IND I 201       1.961  10.721 -16.412  1.00 49.34     0.020 A 
HETATM   47  C34 IND I 201       2.874  10.458 -17.440  1.00 50.60     0.099 A 
HETATM   48  N5  IND I 201       3.116   9.213 -18.018  1.00 51.38    -0.243 NA
HETATM   49  C33 IND I 201       2.310   8.226 -17.427  1.00 47.41     0.097 A 
ENDBRANCH  43  44
ENDBRANCH  32  43
ENDBRANCH  28  29
ENDBRANCH   1  28
TORSDOF 14
ENDMDL
MODEL 9
REMARK VINA RESULT:      -9.9      2.366     10.659
REMARK  14 active torsions:
REMARK  status: ('A' for Active; 'I' for Inactive)
REMARK    1  A    between atoms: N1_1  and  C31_37 
REMARK    2  A    between atoms: C2_3  and  C3_4 
REMARK       I    between atoms: C3_4  and  N2_6 
REMARK    3  A    between atoms: N2_6  and  C4_44 
REMARK    4  A    between atoms: N3_7  and  C10_10 
REMARK    5  A    between atoms: C10_10  and  C11_11 
REMARK    6  A    between atoms: C11_11  and  C12_12 
REMARK    7  A    between atoms: C11_11  and  O2_29 
REMARK    8  A    between atoms: C12_12  and  C13_13 
REMARK    9  A    between atoms: C13_13  and  C14_14 
REMARK   10  A    between atoms: C13_13  and  C21_15 
REMARK   11  A    between atoms: C14_14  and  C15_31 
REMARK       I    between atoms: C21_15  and  N4_17 
REMARK   12  A    between atoms: N4_17  and  C22_18 
REMARK   13  A    between atoms: C23_19  and  O4_48 
REMARK   14  A    between atoms: C31_37  and  C32_38 
ROOT
HETATM    1  C11 IND I 201       3.283   5.241  -4.950  1.00 21.68     0.133 C 
ENDROOT
BRANCH   1   2
HETATM    2  C12 IND I 201       3.389   5.887  -3.557  1.00 21.49     0.041 C 
BRANCH   2   3
HETATM    3  C13 IND I 201       2.135   6.393  -2.831  1.00 26.89     0.086 C 
BRANCH   3   4
HETATM    4  C14 IND I 201       1.001   5.354  -2.832  1.00 28.67     0.036 C 
BRANCH   4   5
HETATM    5  C15 IND I 201      -0.288   5.921  -3.303  1.00 26.89    -0.022 A 
HETATM    6  C16 IND I 201      -1.521   5.482  -2.821  1.00 29.22    -0.004 A 
HETATM    7  C17 IND I 201      -2.704   6.014  -3.316  1.00 29.22    -0.000 A 
HETATM    8  C18 IND I 201      -2.636   6.996  -4.306  1.00 30.97    -0.000 A 
HETATM    9  C19 IND I 201      -1.400   7.445  -4.787  1.00 29.25    -0.000 A 
HETATM   10  C20 IND I 201      -0.220   6.900  -4.278  1.00 29.96    -0.004 A 
ENDBRANCH   4   5
ENDBRANCH   3   4
BRANCH   3  11
HETATM   11  C21 IND I 201       2.431   6.799  -1.393  1.00 29.35     0.231 C 
HETATM   12  O3  IND I 201       2.098   6.066  -0.448  1.00 32.66    -0.273 OA
HETATM   13  N4  IND I 201       2.943   8.017  -1.238  1.00 31.19    -0.341 N 
HETATM   14  H32 IND I 201       3.328   8.508  -2.057  1.00  0.00     0.163 HD
BRANCH  13  15
HETATM   15  C22 IND I 201       2.971   8.673   0.059  1.00 29.22     0.130 C 
HETATM   16  C23 IND I 201       2.802  10.177  -0.060  1.00 28.82     0.139 C 
HETATM   17  C24 IND I 201       3.417  10.745   1.199  1.00 32.05     0.058 C 
HETATM   18  C25 IND I 201       4.549   9.873   1.678  1.00 31.29    -0.022 A 
HETATM   19  C26 IND I 201       5.649  10.003   2.494  1.00 32.00    -0.004 A 
HETATM   20  C30 IND I 201       4.253   8.548   0.922  1.00 31.86    -0.004 A 
HETATM   21  C27 IND I 201       6.499   8.901   2.639  1.00 28.00    -0.000 A 
HETATM   22  C28 IND I 201       6.235   7.694   1.971  1.00 29.01    -0.000 A 
HETATM   23  C29 IND I 201       5.139   7.539   1.135  1.00 27.70    -0.003 A 
BRANCH  16  24
HETATM   24  O4  IND I 201       3.405  10.646  -1.256  1.00 28.32    -0.382 OA
HETATM   25  H35 IND I 201       3.925   9.877  -1.704  1.00  0.00     0.210 HD
ENDBRANCH  16  24
ENDBRANCH  13  15
ENDBRANCH   3  11
ENDBRANCH   2   3
ENDBRANCH   1   2
BRANCH   1  26
HETATM   26  O2  IND I 201       3.658   3.902  -4.835  1.00 15.87    -0.383 OA
HETATM   27  H21 IND I 201       4.679   3.841  -4.710  1.00  0.00     0.210 HD
ENDBRANCH   1  26
BRANCH   1  28
HETATM   28  C10 IND I 201       4.225   5.549  -6.114  1.00 20.86     0.127 C 
BRANCH  28  29
HETATM   29  N3  IND I 201       3.566   6.092  -7.285  1.00 28.91    -0.357 N 
HETATM   30  C2  IND I 201       3.776   5.381  -8.594  1.00 27.27     0.190 C 
HETATM   31  C1  IND I 201       2.868   6.167  -9.520  1.00 30.30     0.282 C 
HETATM   32  N1  IND I 201       1.411   6.296  -9.248  1.00 28.25     0.146 N 
HETATM   33  C9  IND I 201       1.272   6.962  -8.032  1.00 27.47     0.274 C 
HETATM   34  C8  IND I 201       2.195   6.522  -6.914  1.00 26.24     0.133 C 
BRANCH  30  35
HETATM   35  C3  IND I 201       5.187   5.493  -9.108  1.00 28.85     0.252 C 
HETATM   36  O1  IND I 201       6.077   4.808  -8.618  1.00 29.59    -0.270 OA
HETATM   37  N2  IND I 201       5.404   6.355 -10.080  1.00 22.29    -0.347 N 
HETATM   38  H4  IND I 201       4.583   6.915 -10.354  1.00  0.00     0.163 HD
BRANCH  37  39
HETATM   39  C4  IND I 201       6.595   6.639 -10.816  1.00 23.47     0.064 C 
HETATM   40  C6  IND I 201       6.888   5.682 -11.773  1.00 21.71     0.022 C 
HETATM   41  C5  IND I 201       6.397   8.016 -11.475  1.00 27.66     0.022 C 
HETATM   42  C7  IND I 201       7.781   6.803  -9.969  1.00 22.75     0.022 C 
ENDBRANCH  37  39
ENDBRANCH  30  35
BRANCH  32  43
HETATM   43  C31 IND I 201       0.568   6.813 -10.333  1.00 36.25     0.278 C 
BRANCH  43  44
HETATM   44  C32 IND I 201       0.685   6.272 -11.762  1.00 42.75     0.030 A 
HETATM   45  C36 IND I 201       0.860   7.185 -12.780  1.00 44.71     0.001 A 
HETATM   46  C35 IND I 201       0.947   6.702 -14.083  1.00 49.34     0.020 A 
HETATM   47  C34 IND I 201       0.854   5.327 -14.323  1.00 50.60     0.099 A 
HETATM   48  N5  IND I 201       0.676   4.339 -13.356  1.00 51.38    -0.243 NA
HETATM   49  C33 IND I 201       0.600   4.907 -12.073  1.00 47.41     0.097 A 
ENDBRANCH  43  44
ENDBRANCH  32  43
ENDBRANCH  28  29
ENDBRANCH   1  28
TORSDOF 14
ENDMDL
